Version 4
SHEET 1 916 680
WIRE -368 -848 -368 -896
WIRE 144 -832 -64 -832
WIRE -368 -752 -368 -768
WIRE 144 -752 -64 -752
WIRE -368 -672 -368 -752
WIRE -1200 -624 -1264 -624
WIRE -1024 -624 -1088 -624
WIRE -496 -624 -592 -624
WIRE -432 -624 -496 -624
WIRE -800 -608 -832 -608
WIRE -768 -608 -800 -608
WIRE -592 -592 -592 -624
WIRE -1264 -576 -1264 -624
WIRE -1088 -576 -1088 -624
WIRE -368 -544 -368 -576
WIRE -1264 -464 -1264 -496
WIRE -1088 -464 -1088 -496
WIRE -592 -448 -592 -512
WIRE -768 -432 -768 -608
WIRE -768 -304 -768 -352
WIRE -576 -304 -768 -304
WIRE -768 -224 -768 -304
WIRE -368 -224 -368 -544
WIRE -576 -176 -576 -304
WIRE -576 -176 -704 -176
WIRE -432 -176 -576 -176
WIRE -768 -32 -768 -128
WIRE -576 -32 -768 -32
WIRE -368 -32 -368 -128
WIRE -368 -32 -576 -32
WIRE -656 80 -688 80
WIRE -576 80 -576 -32
WIRE -576 80 -656 80
FLAG -1264 -464 0
FLAG -496 -624 b
FLAG -368 -752 c
FLAG -368 -544 e
FLAG -1200 -624 VCC
FLAG -800 -608 VCC
FLAG -1088 -464 0
FLAG -1024 -624 -VEE
FLAG -656 80 -VEE
FLAG -368 -896 VCC
FLAG -592 -448 0
SYMBOL npn -432 -672 R0
SYMATTR InstName Q1
SYMATTR Value NPN_ideal
SYMBOL res -576 -496 R180
WINDOW 0 36 76 Left 2
WINDOW 3 36 40 Left 2
SYMATTR InstName RB
SYMATTR Value 100k
SYMBOL res -384 -864 R0
SYMATTR InstName RC
SYMATTR Value 7.5k
SYMBOL voltage -1264 -592 R0
WINDOW 123 0 0 Left 0
WINDOW 39 0 0 Left 0
SYMATTR InstName VCC
SYMATTR Value 10
SYMBOL npn -704 -224 M0
SYMATTR InstName Q2
SYMATTR Value NPN_ideal
SYMBOL npn -432 -224 R0
SYMATTR InstName Q3
SYMATTR Value NPN_ideal
SYMBOL res -784 -448 R0
SYMATTR InstName R1
SYMATTR Value 19.3k
SYMBOL voltage -1088 -592 R0
WINDOW 123 0 0 Left 0
WINDOW 39 0 0 Left 0
SYMATTR InstName VEE
SYMATTR Value -10
TEXT -64 -848 Left 2 ;Analisis
TEXT -64 -824 Left 2 !.op
TEXT -64 -736 Left 2 !.model NPN_ideal NPN(BF = 100)
TEXT -64 -768 Left 2 ;Modelos
