Version 4
SHEET 1 1376 680
WIRE -304 -240 -304 -320
WIRE -176 -240 -176 -320
WIRE -32 -240 -32 -320
WIRE -32 -112 -32 -160
WIRE 16 -112 -32 -112
WIRE -304 -96 -304 -160
WIRE -176 -96 -176 -160
WIRE -32 -96 -32 -112
WIRE -160 -16 -208 -16
WIRE -32 0 -32 -96
WIRE -256 48 -304 48
WIRE -160 48 -160 -16
WIRE -160 48 -176 48
WIRE -128 48 -160 48
WIRE -96 48 -128 48
WIRE -304 128 -304 48
WIRE -32 208 -32 96
WIRE 16 208 -32 208
WIRE -32 256 -32 208
WIRE -32 416 -32 336
FLAG -304 -96 0
FLAG -32 -96 e
FLAG -32 208 c
FLAG -128 48 b
FLAG -304 -320 V+
FLAG -32 -320 V+
FLAG -304 128 0
FLAG -176 -96 0
FLAG -176 -320 V-
FLAG -32 416 V-
DATAFLAG 16 208 ""
DATAFLAG 16 -112 ""
DATAFLAG -192 128 "Ib(Q1)"
DATAFLAG 64 144 "I(Rc)"
DATAFLAG 64 -32 "Ie(Q1)"
DATAFLAG -208 -16 ""
SYMBOL res -48 -256 R0
SYMATTR InstName Re
SYMATTR Value 1k
SYMBOL res -48 240 R0
SYMATTR InstName Rc
SYMATTR Value 10k
SYMBOL voltage -304 -256 R0
WINDOW 123 0 0 Left 0
WINDOW 39 0 0 Left 0
SYMATTR InstName V1
SYMATTR Value 5V
SYMBOL voltage -176 -256 R0
WINDOW 123 0 0 Left 0
WINDOW 39 0 0 Left 0
SYMATTR InstName V2
SYMATTR Value -5V
SYMBOL pnp -96 96 M180
SYMATTR InstName Q1
SYMBOL res -160 32 R90
WINDOW 0 0 56 VBottom 2
WINDOW 3 32 56 VTop 2
SYMATTR InstName R1
SYMATTR Value 10k
TEXT 160 -352 Left 2 ;Parametros de simulación
TEXT 160 -320 Left 1 !.op
LINE Normal 560 -336 160 -336
LINE Normal 560 -336 560 -336 2
LINE Normal 560 -336 560 -336 2
