Version 4
SHEET 1 880 680
WIRE -288 -176 -320 -176
WIRE 80 -176 0 -176
WIRE 496 -160 288 -160
WIRE -320 -112 -320 -176
WIRE 80 -112 80 -176
WIRE -320 0 -320 -32
WIRE 496 0 288 0
WIRE 80 16 80 -32
WIRE 128 16 80 16
WIRE 80 48 80 16
WIRE -272 96 -320 96
WIRE -160 96 -272 96
WIRE 16 96 -80 96
WIRE -320 144 -320 96
WIRE -320 272 -320 224
WIRE 80 272 80 144
FLAG 80 272 0
FLAG -320 0 0
FLAG -288 -176 VCC
FLAG -320 272 0
FLAG 0 -176 VCC
FLAG 128 16 Vout
FLAG -272 96 Vin
SYMBOL npn 16 48 R0
SYMATTR InstName Q1
SYMATTR Value NPN_ideal
SYMBOL res -64 80 R90
WINDOW 0 0 56 VBottom 2
WINDOW 3 32 56 VTop 2
SYMATTR InstName RBB
SYMATTR Value 100k
SYMBOL res 64 -128 R0
SYMATTR InstName RC
SYMATTR Value 3k
SYMBOL voltage -320 -128 R0
WINDOW 123 0 0 Left 0
WINDOW 39 0 0 Left 0
SYMATTR InstName VCC
SYMATTR Value 10
SYMBOL voltage -320 128 R0
WINDOW 3 -64 54 Left 2
WINDOW 123 0 0 Left 0
WINDOW 39 0 0 Left 0
SYMATTR Value 3
SYMATTR InstName VBB
TEXT 288 -144 Left 2 !;.tran 3m
TEXT 288 -176 Left 2 ;Analisis
TEXT 288 -120 Left 2 !.op
TEXT 288 24 Left 2 !.model NPN_ideal NPN(BF=100)
TEXT 296 -16 Left 2 ;Modelo
